!
ELEMENTS
O H C N AR 
END
SPECIES
N2 H2O O2 CO2 C12H26 
END

THERMO ALL
  300.000  1000.000  5000.000
N2                121286N   2               G     200.0    5000.0  1000.0      1
      2.92664E0   1.4879768E-3    -5.68476E-7  1.0097038E-10  -6.753351E-15    2
    -9.227977E2     5.980528E0     3.298677E0   1.4082404E-3   -3.963222E-6    3
    5.641515E-9  -2.444854E-12   -1.0208999E3     3.950372E0                   4
H2O               L.8.89H   2O   1          G     200.0    3500.0  1000.0      1
   3.03399249E0  2.17691804E-3 -1.64072518E-7 -9.7041987E-11 1.68200992E-14    2
  -3.00042971E4    4.9667701E0   4.19864056E0  -2.0364341E-3  6.52040211E-6    3
 -5.48797062E-9 1.77197817E-12  -3.02937267E4 -8.49032208E-1                   4
O2                TPIS89O   2               G     200.0    3500.0  1000.0      1
   3.28253784E0  1.48308754E-3 -7.57966669E-7 2.09470555E-10-2.16717794E-14    2
  -1.08845772E3   5.45323129E0   3.78245636E0 -2.99673416E-3  9.84730201E-6    3
 -9.68129509E-9 3.24372837E-12  -1.06394356E3   3.65767573E0                   4
CO2               L.7.88C   1O   2          G     200.0    3500.0  1000.0      1
   3.85746029E0  4.41437026E-3 -2.21481404E-6 5.23490188E-10-4.72084164E-14    2
   -4.8759166E4   2.27163806E0   2.35677352E0  8.98459677E-3 -7.12356269E-6    3
  2.45919022E-9-1.43699548E-13  -4.83719697E4   9.90105222E0                   4
C12H26            .THERMC  12H  26          G     200.0    5000.0  1391.0      1
   3.85095037E1  5.63550048E-2   -1.914932E-5  2.96024862E-9 -1.7124415E-13    2
  -5.48843465E4  -1.72670922E2  -2.62181594E0  1.47237711E-1 -9.43970271E-5    3
  3.07441268E-8 -4.0360223E-12  -4.00654253E4   5.00994626E1                   4
END

REACTIONS MOLES CAL/MOLE
C12H26+18.5O2=12CO2+13H2O    3.25127574E11 -0.02763368 3.10465923E4
    FORD/C12H26 4.1688831E-1/
    FORD/O2 1.32806376E0/
END
