ELEMENTS
N  AR HE O  H  C  
END
SPECIES
N2                AR                H                 O                 OH                HO2               H2                H2O               
H2O2              O2                CH2               CH2*              CH3               CH4               HCO               CH2O              
CH3O              CO                CO2               C2H2              C2H3              C2H4              C2H5              C2H6              
CH2CHO            AC3H5             C3H6              NC3H7             C2H3CHO           C4H7              C4H81             PC4H9             
C5H9              C5H10             PXC5H11           C6H12             PXC6H13           C7H14             PXC7H15           C8H16             
PXC8H17           C9H18             PXC9H19           C10H20            PXC10H21          NC12H26           PXC12H25          SXC12H25          
S3XC12H25         C12H24            C12H25O2          C12OOH            O2C12H24OOH       OC12H23OOH        
END
REACTIONS
H+O2<=>OH+O                              9.756e+13    0.000  14842.26
O+H2<=>H+OH                              4.589e+04    2.700   6260.00
OH+H2<=>H2O+H                            1.024e+08    1.600   3298.28
2OH<=>O+H2O                              3.973e+04    2.400  -2110.00
H+O2(+M)<=>HO2(+M)                       5.116e+12    0.440      0.00
AR/0.40/ H2O/11.89/ O2/0.85/ CO/1.09/ CO2/2.18/ 
     LOW  /  6.328e+19   -1.400      0.00 /
!     FCCHECK/     0.5     1e-30    0.5     1e+30      0         0
     TROE/     0.5    1e-30     1e+30        /
HO2+H<=>2OH                              7.485e+13    0.000    295.00
H2+O2<=>HO2+H                            5.916e+05    2.433  53502.00
HO2+OH<=>H2O+O2                          2.891e+13    0.000   -501.91
HO2+H<=>O+H2O                            3.970e+12    0.000    671.00
HO2+O<=>OH+O2                            4.000e+13    0.000      0.00
2HO2<=>O2+H2O2                           1.300e+11    0.000  -1630.00
     DUPLICATE
2HO2<=>O2+H2O2                           3.658e+14    0.000  12000.00
     DUPLICATE
H2O2+H<=>OH+H2O                          2.410e+13    0.000   3970.00
H2O2+H<=>HO2+H2                          6.050e+06    2.000   5200.00
H2O2+O<=>OH+HO2                          9.630e+06    2.000   3970.00
H2O2+OH<=>HO2+H2O                        2.000e+12    0.000    427.00
     DUPLICATE
H2O2+OH<=>HO2+H2O                        2.670e+41   -7.000  37600.00
     DUPLICATE
2OH(+M)<=>H2O2(+M)                       1.110e+14   -0.370      0.00
AR/0.70/ H2/2.00/ H2O/6.00/ CO/1.75/ CO2/3.60/ 
     LOW  /  2.010e+17   -0.584  -2293.00 /
     TROE/  0.7346       94      1756      5182 /
2H+M<=>H2+M                              1.780e+18   -1.000      0.00
AR/0.63/ H2/0.00/ H2O/0.00/ CO2/0.00/ 
H+OH+M<=>H2O+M                           4.400e+22   -2.000      0.00
AR/0.38/ H2/2.00/ H2O/6.30/ CO/1.75/ CO2/3.60/ 
2O+M<=>O2+M                              1.200e+17   -1.000      0.00
AR/0.83/ H2/2.40/ H2O/15.40/ CO/1.75/ CO2/3.60/ 
2H+H2<=>2H2                              9.000e+16   -0.600      0.00
2H+H2O<=>H2+H2O                          5.624e+19   -1.250      0.00
2H+CO2<=>H2+CO2                          5.500e+20   -2.000      0.00
O+H+M<=>OH+M                             9.428e+18   -1.000      0.00
AR/0.70/ H2/2.00/ H2O/12.00/ CO/1.75/ CO2/3.60/ 
CO+OH<=>CO2+H                            7.046e+04    2.053   -355.67
     DUPLICATE
CO+OH<=>CO2+H                            5.757e+12   -0.664    331.83
     DUPLICATE
CO+HO2<=>CO2+OH                          1.570e+05    2.180  17942.61
CO+O(+M)<=>CO2(+M)                       1.362e+10    0.000   2384.00
AR/0.70/ H2/2.00/ H2O/12.00/ CO/1.75/ CO2/3.60/ 
     LOW  /  1.173e+24   -2.790   4191.00 /
!     FCCHECK/       0         0      0         0      1         0
     TROE/       1     1.00 10000000.00 10000000.00 /
CO+O2<=>CO2+O                            1.119e+12    0.000  47700.00
HCO+M<=>CO+H+M                           1.870e+17   -1.000  17000.00
H2/2.00/ H2O/0.00/ CO/1.75/ CO2/3.60/ 
HCO+H<=>CO+H2                            1.200e+14    0.000      0.00
HCO+O<=>CO+OH                            3.000e+13    0.000      0.00
HCO+O<=>CO2+H                            3.000e+13    0.000      0.00
HCO+OH<=>CO+H2O                          3.020e+13    0.000      0.00
HCO+O2<=>CO+HO2                          1.204e+10    0.807   -727.00
HCO+H2O<=>CO+H+H2O                       2.244e+18   -1.000  17000.00
CO+H2(+M)<=>CH2O(+M)                     4.300e+07    1.500  79600.00
AR/0.70/ H2/2.00/ H2O/6.00/ CH4/2.00/ CO/1.50/ CO2/2.00/ C2H6/3.00/ 
     LOW  /  5.070e+27   -3.420  84350.00 /
     TROE/   0.932      197      1540     10300 /
HCO+H(+M)<=>CH2O(+M)                     1.090e+12    0.480   -260.00
AR/0.70/ H2/2.00/ H2O/6.00/ CH4/2.00/ CO/1.50/ CO2/2.00/ C2H6/3.00/ 
     LOW  /  1.350e+24   -2.570   1425.00 /
     TROE/  0.7824      271      2755      6570 /
CH2+H(+M)<=>CH3(+M)                      2.500e+16   -0.800      0.00
AR/0.70/ H2/2.00/ H2O/6.00/ CH4/2.00/ CO/1.50/ CO2/2.00/ C2H6/3.00/ 
     LOW  /  3.200e+27   -3.140   1230.00 /
     TROE/    0.68       78      1995      5590 /
CH2+O<=>HCO+H                            8.000e+13    0.000      0.00
CH2+OH<=>CH2O+H                          2.000e+13    0.000      0.00
CH2+H2<=>H+CH3                           5.000e+05    2.000   7230.00
CH2+O2<=>HCO+OH                          1.060e+13    0.000   1500.00
CH2+O2<=>CO2+2H                          2.640e+12    0.000   1500.00
CH2+HO2<=>CH2O+OH                        2.000e+13    0.000      0.00
2CH2<=>C2H2+H2                           3.200e+13    0.000      0.00
CH2*+N2<=>CH2+N2                         1.500e+13    0.000    600.00
CH2*+AR<=>CH2+AR                         9.000e+12    0.000    600.00
CH2*+O<=>CO+H2                           1.500e+13    0.000      0.00
CH2*+O<=>HCO+H                           1.500e+13    0.000      0.00
CH2*+OH<=>CH2O+H                         3.000e+13    0.000      0.00
CH2*+H2<=>CH3+H                          7.000e+13    0.000      0.00
CH2*+O2<=>H+OH+CO                        2.800e+13    0.000      0.00
CH2*+O2<=>CO+H2O                         1.200e+13    0.000      0.00
CH2*+H2O<=>CH2+H2O                       3.000e+13    0.000      0.00
CH2*+CO<=>CH2+CO                         9.000e+12    0.000      0.00
CH2*+CO2<=>CH2+CO2                       7.000e+12    0.000      0.00
CH2*+CO2<=>CH2O+CO                       1.400e+13    0.000      0.00
CH2O+H(+M)<=>CH3O(+M)                    5.400e+11    0.454   2600.00
H2/2.00/ H2O/6.00/ CH4/2.00/ CO/1.50/ CO2/2.00/ C2H6/3.00/ 
     LOW  /  2.200e+30   -4.800   5560.00 /
     TROE/   0.758       94      1555      4200 /
CH2O+H<=>HCO+H2                          2.300e+10    1.050   3275.00
CH2O+O<=>HCO+OH                          3.900e+13    0.000   3540.00
CH2O+OH<=>HCO+H2O                        3.430e+09    1.180   -447.00
CH2O+O2<=>HCO+HO2                        1.000e+14    0.000  40000.00
CH2O+HO2<=>HCO+H2O2                      1.000e+12    0.000   8000.00
CH3+H(+M)<=>CH4(+M)                      1.270e+16   -0.630    383.00
AR/0.70/ H2/2.00/ H2O/6.00/ CH4/2.00/ CO/1.50/ CO2/2.00/ C2H6/3.00/ 
     LOW  /  2.477e+33   -4.760   2440.00 /
     TROE/   0.783       74      2941      6964 /
CH3+O<=>CH2O+H                           8.430e+13    0.000      0.00
CH3+OH<=>CH2+H2O                         5.600e+07    1.600   5420.00
CH3+OH<=>CH2*+H2O                        2.501e+13    0.000      0.00
CH3+O2<=>O+CH3O                          3.083e+13    0.000  28800.00
CH3+O2<=>OH+CH2O                         3.600e+10    0.000   8940.00
CH3+HO2<=>CH4+O2                         1.000e+12    0.000      0.00
CH3+HO2<=>CH3O+OH                        1.340e+13    0.000      0.00
CH3+H2O2<=>CH4+HO2                       2.450e+04    2.470   5180.00
CH3+HCO<=>CH4+CO                         8.480e+12    0.000      0.00
CH3+CH2O<=>CH4+HCO                       3.320e+03    2.810   5860.00
CH3+CH2<=>C2H4+H                         4.000e+13    0.000      0.00
CH3+CH2*<=>C2H4+H                        1.200e+13    0.000   -570.00
2CH3(+M)<=>C2H6(+M)                      2.120e+16   -0.970    620.00
AR/0.70/ H2/2.00/ H2O/6.00/ CH4/2.00/ CO/1.50/ CO2/2.00/ C2H6/3.00/ 
     LOW  /  1.770e+50   -9.670   6220.00 /
     TROE/  0.5325      151      1038      4970 /
2CH3<=>H+C2H5                            4.990e+12    0.100  10600.00
CH3O+H<=>CH2O+H2                         2.000e+13    0.000      0.00
CH3O+H<=>CH3+OH                          3.200e+13    0.000      0.00
CH3O+H<=>CH2*+H2O                        1.600e+13    0.000      0.00
CH3O+O<=>CH2O+OH                         1.000e+13    0.000      0.00
CH3O+OH<=>CH2O+H2O                       5.000e+12    0.000      0.00
CH3O+O2<=>CH2O+HO2                       4.280e-13    7.600  -3530.00
CH4+H<=>CH3+H2                           6.600e+08    1.620  10840.00
CH4+O<=>CH3+OH                           1.020e+09    1.500   8600.00
CH4+OH<=>CH3+H2O                         1.000e+08    1.600   3120.00
CH4+CH2<=>2CH3                           2.460e+06    2.000   8270.00
CH4+CH2*<=>2CH3                          1.600e+13    0.000   -570.00
C2H3(+M)<=>C2H2+H(+M)                    3.860e+07    1.620  37048.20
AR/0.70/ H2/2.00/ H2O/6.00/ CH4/2.00/ CO/1.50/ CO2/2.00/ C2H2/3.00/ C2H4/3.00/ 
C2H6/3.00/ 
     LOW  /  2.565e+27   -3.400  35798.72 /
     TROE/   1.982   5383.7    4.2932   -0.0795 /
C2H2+O<=>CH2+CO                          4.080e+06    2.000   1900.00
C2H2+OH<=>CH3+CO                         4.830e-04    4.000  -2000.00
C2H2+HCO<=>C2H3+CO                       1.000e+07    2.000   6000.00
C2H2+CH3<=>AC3H5                         2.680e+53  -12.820  35730.00
C2H3+H(+M)<=>C2H4(+M)                    6.080e+12    0.270    280.00
AR/0.70/ H2/2.00/ H2O/6.00/ CH4/2.00/ CO/1.50/ CO2/2.00/ C2H2/3.00/ C2H4/3.00/ 
C2H6/3.00/ 
     LOW  /  1.400e+30   -3.860   3320.00 /
     TROE/   0.782    207.5      2663      6095 /
C2H3+H<=>C2H2+H2                         9.000e+13    0.000      0.00
C2H3+O<=>CH3+CO                          4.800e+13    0.000      0.00
C2H3+OH<=>C2H2+H2O                       3.011e+13    0.000      0.00
C2H3+O2<=>C2H2+HO2                       1.340e+06    1.610   -383.40
C2H3+O2<=>CH2CHO+O                       3.000e+11    0.290     11.00
C2H3+O2<=>HCO+CH2O                       4.600e+16   -1.390   1010.00
C2H3+HO2<=>CH2CHO+OH                     1.000e+13    0.000      0.00
C2H3+H2O2<=>C2H4+HO2                     1.210e+10    0.000   -596.00
C2H3+HCO<=>C2H4+CO                       9.033e+13    0.000      0.00
C2H3+HCO<=>C2H3CHO                       1.800e+13    0.000      0.00
C2H3+CH3<=>C2H2+CH4                      3.920e+11    0.000      0.00
C2H3+CH3(+M)<=>C3H6(+M)                  2.500e+13    0.000      0.00
AR/0.70/ H2/2.00/ H2O/6.00/ CH4/2.00/ CO/1.50/ CO2/2.00/ C2H2/3.00/ C2H4/3.00/ 
C2H6/3.00/ 
     LOW  /  4.270e+58  -11.940   9769.80 /
     TROE/   0.175   1340.6     60000   10139.8 /
C2H3+CH3<=>AC3H5+H                       1.500e+24   -2.830  18618.00
2C2H3<=>C2H2+C2H4                        9.600e+11    0.000      0.00
CH2CHO<=>CH3+CO                          7.800e+41   -9.147  46900.00
CH2CHO+H<=>CH3+HCO                       9.000e+13    0.000      0.00
CH2CHO+O2<=>CH2O+CO+OH                   1.800e+10    0.000      0.00
C2H4+H(+M)<=>C2H5(+M)                    3.975e+09    1.280   1290.63
AR/0.70/ H2/2.00/ H2O/6.00/ CH4/2.00/ CO/1.50/ CO2/2.00/ C2H6/3.00/ 
     LOW  /  4.715e+18    0.000    755.26 /
!     FCCHECK/    0.24        40   0.76      1025      0         0
     TROE/    0.76       40      1025        /
C2H4+H<=>C2H3+H2                         5.070e+07    1.900  12950.00
C2H4+O<=>C2H3+OH                         1.510e+07    1.900   3740.00
C2H4+O<=>CH3+HCO                         1.920e+07    1.830    220.00
C2H4+O<=>CH2+CH2O                        3.840e+05    1.830    220.00
C2H4+OH<=>C2H3+H2O                       3.600e+06    2.000   2500.00
C2H4+HCO<=>C2H5+CO                       1.000e+07    2.000   8000.00
C2H4+CH2<=>AC3H5+H                       2.000e+13    0.000   6000.00
C2H4+CH2*<=>AC3H5+H                      5.000e+13    0.000      0.00
C2H4+CH3<=>C2H3+CH4                      2.270e+05    2.000   9200.00
NC3H7<=>CH3+C2H4                         9.600e+13    0.000  31022.94
C2H4+O2<=>C2H3+HO2                       4.220e+13    0.000  60800.00
C2H4+C2H3<=>C4H7                         7.930e+38   -8.470  14220.00
C2H5+H(+M)<=>C2H6(+M)                    5.210e+17   -0.990   1580.00
AR/0.70/ H2/2.00/ H2O/6.00/ CH4/2.00/ CO/1.50/ CO2/2.00/ C2H6/3.00/ 
     LOW  /  1.990e+41   -7.080   6685.00 /
     TROE/  0.8422      125      2219      6882 /
C2H5+H<=>C2H4+H2                         2.000e+12    0.000      0.00
C2H5+O<=>CH3+CH2O                        1.604e+13    0.000      0.00
C2H5+O2<=>C2H4+HO2                       2.000e+10    0.000      0.00
C2H5+HO2<=>C2H6+O2                       3.000e+11    0.000      0.00
C2H5+HO2<=>C2H4+H2O2                     3.000e+11    0.000      0.00
C2H5+HO2<=>CH3+CH2O+OH                   2.400e+13    0.000      0.00
C2H5+H2O2<=>C2H6+HO2                     8.700e+09    0.000    974.00
C2H5+C2H3(+M)<=>C4H81(+M)                1.500e+13    0.000      0.00
AR/0.70/ H2/2.00/ H2O/6.00/ CH4/2.00/ CO/1.50/ CO2/2.00/ C2H6/3.00/ 
     LOW  /  1.550e+56  -11.790   8984.50 /
     TROE/   0.198   2277.9     60000    5723.2 /
C2H5+C2H3<=>AC3H5+CH3                    3.900e+32   -5.220  19747.00
C2H6+H<=>C2H5+H2                         1.150e+08    1.900   7530.00
C2H6+O<=>C2H5+OH                         8.980e+07    1.920   5690.00
C2H6+OH<=>C2H5+H2O                       3.540e+06    2.120    870.00
C2H6+CH2*<=>C2H5+CH3                     4.000e+13    0.000   -550.00
C2H6+CH3<=>C2H5+CH4                      6.140e+06    1.740  10450.00
AC3H5+H(+M)<=>C3H6(+M)                   2.000e+14    0.000      0.00
AR/0.70/ H2/2.00/ H2O/6.00/ CH4/2.00/ CO/1.50/ CO2/2.00/ C2H6/3.00/ 
     LOW  /  1.330e+60  -12.000   5967.80 /
     TROE/    0.02   1096.6    1096.6    6859.5 /
AC3H5+O<=>C2H3CHO+H                      6.000e+13    0.000      0.00
AC3H5+OH<=>C2H3CHO+2H                    4.200e+32   -5.160  30126.00
AC3H5+O2<=>C2H3CHO+OH                    1.820e+13   -0.410  22859.00
AC3H5+HO2<=>C3H6+O2                      2.660e+12    0.000      0.00
AC3H5+HO2<=>OH+C2H3+CH2O                 6.600e+12    0.000      0.00
AC3H5+HCO<=>C3H6+CO                      6.000e+13    0.000      0.00
AC3H5+CH3(+M)<=>C4H81(+M)                1.000e+14   -0.320   -262.30
AR/0.70/ H2/2.00/ H2O/6.00/ CH4/2.00/ CO/1.50/ CO2/2.00/ C2H6/3.00/ 
     LOW  /  3.910e+60  -12.810   6250.00 /
     TROE/   0.104     1606     60000    6118.4 /
C3H6+H(+M)<=>NC3H7(+M)                   1.330e+13    0.000   3260.70
AR/0.70/ H2/2.00/ H2O/6.00/ CH4/2.00/ CO/1.50/ CO2/2.00/ C2H6/3.00/ 
     LOW  /  6.260e+38   -6.660   7000.00 /
     TROE/       1     1000      1310     48097 /
C3H6+H<=>C2H4+CH3                        8.000e+21   -2.390  11180.00
C3H6+H<=>AC3H5+H2                        1.730e+05    2.500   2490.00
C3H6+O<=>C2H3CHO+2H                      4.000e+07    1.650    327.00
C3H6+O<=>C2H5+HCO                        3.500e+07    1.650   -972.00
C3H6+O<=>AC3H5+OH                        1.800e+11    0.700   5880.00
C3H6+OH<=>AC3H5+H2O                      3.100e+06    2.000   -298.00
C3H6+HO2<=>AC3H5+H2O2                    9.600e+03    2.600  13910.00
C3H6+CH3<=>AC3H5+CH4                     2.200e+00    3.500   5675.00
C2H3CHO+H<=>C2H4+HCO                     1.080e+11    0.454   5820.00
C2H3CHO+O<=>C2H3+OH+CO                   3.000e+13    0.000   3540.00
C2H3CHO+OH<=>C2H3+H2O+CO                 3.430e+09    1.180   -447.00
NC3H7+H<=>C2H5+CH3                       3.700e+24   -2.920  12505.00
NC3H7+H<=>C3H6+H2                        1.800e+12    0.000      0.00
NC3H7+O<=>C2H5+CH2O                      9.600e+13    0.000      0.00
NC3H7+OH<=>C3H6+H2O                      2.400e+13    0.000      0.00
NC3H7+O2<=>C3H6+HO2                      9.000e+10    0.000      0.00
NC3H7+HO2<=>C2H5+OH+CH2O                 2.400e+13    0.000      0.00
NC3H7+CH3<=>CH4+C3H6                     1.100e+13    0.000      0.00
C4H7+H(+M)<=>C4H81(+M)                   3.600e+13    0.000      0.00
AR/0.70/ H2/2.00/ H2O/6.00/ CH4/2.00/ CO/1.50/ CO2/2.00/ C2H6/3.00/ 
     LOW  /  3.010e+48   -9.320   5833.60 /
     TROE/   0.498     1314      1314     50000 /
C4H7+H<=>CH3+AC3H5                       2.000e+21   -2.000  11000.00
C4H7+HO2<=>CH2O+OH+AC3H5                 2.400e+13    0.000      0.00
C4H7+HCO<=>C4H81+CO                      6.000e+13    0.000      0.00
C4H81+H(+M)<=>PC4H9(+M)                  1.330e+13    0.000   3260.70
AR/0.70/ H2/2.00/ H2O/6.00/ CH4/2.00/ CO/1.50/ CO2/2.00/ C2H6/3.00/ 
     LOW  /  6.260e+38   -6.660   7000.00 /
     TROE/       1     1000      1310     48097 /
C4H81+H<=>C2H4+C2H5                      1.600e+22   -2.390  11180.00
C4H81+H<=>C3H6+CH3                       3.200e+22   -2.390  11180.00
C4H81+H<=>C4H7+H2                        6.500e+05    2.540   6756.00
C4H81+O<=>NC3H7+HCO                      3.300e+08    1.450   -402.00
C4H81+O<=>C4H7+OH                        1.500e+13    0.000   5760.00
     DUPLICATE
C4H81+O<=>C4H7+OH                        2.600e+13    0.000   4470.00
     DUPLICATE
C4H81+OH<=>C4H7+H2O                      7.000e+02    2.660    527.00
C4H81+O2<=>C4H7+HO2                      2.000e+13    0.000  50930.00
C4H81+HO2<=>C4H7+H2O2                    1.000e+12    0.000  14340.00
C4H81+CH3<=>C4H7+CH4                     4.500e-01    3.650   7153.00
PC4H9+H<=>2C2H5                          3.700e+24   -2.920  12505.00
PC4H9+H<=>C4H81+H2                       1.800e+12    0.000      0.00
PC4H9+O<=>NC3H7+CH2O                     9.600e+13    0.000      0.00
PC4H9+OH<=>C4H81+H2O                     2.400e+13    0.000      0.00
PC4H9+O2<=>C4H81+HO2                     2.700e+11    0.000      0.00
PC4H9+HO2<=>NC3H7+OH+CH2O                2.400e+13    0.000      0.00
PC4H9+CH3<=>C4H81+CH4                    1.100e+13    0.000      0.00
C5H9=>AC3H5+C2H4                         2.500e+13    0.000  30019.12
C5H9=>C2H3+C3H6                          2.500e+13    0.000  30019.12
C5H10+H(+M)<=>PXC5H11(+M)                1.330e+13    0.000   3260.70
AR/0.70/ H2/2.00/ H2O/6.00/ CH4/2.00/ CO/1.50/ CO2/2.00/ C2H6/3.00/ 
     LOW  /  6.260e+38   -6.660   7000.00 /
     TROE/       1     1000      1310     48097 /
C5H10+H<=>C2H4+NC3H7                     8.000e+21   -2.390  11180.00
C5H10+H<=>C3H6+C2H5                      1.600e+22   -2.390  11180.00
C2H4+NC3H7<=>PXC5H11                     3.000e+11    0.000   7300.00
C6H12+H(+M)<=>PXC6H13(+M)                1.330e+13    0.000   3260.70
AR/0.70/ H2/2.00/ H2O/6.00/ CH4/2.00/ CO/1.50/ CO2/2.00/ C2H6/3.00/ 
     LOW  /  6.260e+38   -6.660   7000.00 /
     TROE/       1     1000      1310     48097 /
C6H12+H<=>C2H4+PC4H9                     8.000e+21   -2.390  11180.00
C6H12+H<=>C3H6+NC3H7                     1.600e+22   -2.390  11180.00
C2H4+PC4H9<=>PXC6H13                     3.000e+11    0.000   7300.00
C7H14+H(+M)<=>PXC7H15(+M)                1.330e+13    0.000   3260.70
AR/0.70/ H2/2.00/ H2O/6.00/ CH4/2.00/ CO/1.50/ CO2/2.00/ C2H6/3.00/ 
     LOW  /  6.260e+38   -6.660   7000.00 /
     TROE/       1     1000      1310     48097 /
C7H14+H<=>C2H4+PXC5H11                   8.000e+21   -2.390  11180.00
C7H14+H<=>C3H6+PC4H9                     1.600e+22   -2.390  11180.00
C2H4+PXC5H11<=>PXC7H15                   3.000e+11    0.000   7300.00
C8H16+H(+M)<=>PXC8H17(+M)                1.330e+13    0.000   3260.70
AR/0.70/ H2/2.00/ H2O/6.00/ CH4/2.00/ CO/1.50/ CO2/2.00/ C2H6/3.00/ 
     LOW  /  6.260e+38   -6.660   7000.00 /
     TROE/       1     1000      1310     48097 /
C8H16+H<=>C2H4+PXC6H13                   8.000e+21   -2.390  11180.00
C8H16+H<=>C3H6+PXC5H11                   1.600e+22   -2.390  11180.00
C2H4+PXC6H13<=>PXC8H17                   3.000e+11    0.000   7300.00
C9H18+H(+M)<=>PXC9H19(+M)                1.330e+13    0.000   3260.70
AR/0.70/ H2/2.00/ H2O/6.00/ CH4/2.00/ CO/1.50/ CO2/2.00/ C2H6/3.00/ 
     LOW  /  6.260e+38   -6.660   7000.00 /
     TROE/       1     1000      1310     48097 /
C9H18+H<=>C2H4+PXC7H15                   8.000e+21   -2.390  11180.00
C9H18+H<=>C3H6+PXC6H13                   1.600e+22   -2.390  11180.00
C2H4+PXC7H15<=>PXC9H19                   3.000e+11    0.000   7300.00
C10H20+H(+M)<=>PXC10H21(+M)              1.330e+13    0.000   3260.70
AR/0.70/ H2/2.00/ H2O/6.00/ CH4/2.00/ CO/1.50/ CO2/2.00/ C2H6/3.00/ 
     LOW  /  6.260e+38   -6.660   7000.00 /
     TROE/       1     1000      1310     48097 /
C10H20+H<=>C2H4+PXC8H17                  8.000e+21   -2.390  11180.00
C10H20+H<=>C3H6+PXC7H15                  1.600e+22   -2.390  11180.00
C2H4+PXC8H17<=>PXC10H21                  3.000e+11    0.000   7300.00
C12H24<=>PXC7H15+C5H9                    3.500e+16    0.000  70936.90
C2H4+PXC10H21<=>PXC12H25                 3.000e+11    0.000   7300.00
PXC12H25<=>S3XC12H25                     3.670e+12   -0.600  14400.00
C3H6+PXC9H19<=>SXC12H25                  3.000e+11    0.000   7300.00
C4H81+PXC8H17<=>SXC12H25                 3.000e+11    0.000   7300.00
C5H10+PXC7H15<=>S3XC12H25                3.000e+11    0.000   7300.00
C10H20+C2H5<=>S3XC12H25                  3.000e+11    0.000   7300.00
C6H12+PXC6H13<=>S3XC12H25                3.000e+11    0.000   7300.00
C9H18+NC3H7<=>S3XC12H25                  3.000e+11    0.000   7300.00
C7H14+PXC5H11<=>S3XC12H25                3.000e+11    0.000   7300.00
C8H16+PC4H9<=>S3XC12H25                  3.000e+11    0.000   7300.00
PXC10H21+C2H5<=>NC12H26                  1.880e+14   -0.500      0.00
PXC9H19+NC3H7<=>NC12H26                  1.880e+14   -0.500      0.00
PXC8H17+PC4H9<=>NC12H26                  1.880e+14   -0.500      0.00
PXC7H15+PXC5H11<=>NC12H26                1.880e+14   -0.500      0.00
2PXC6H13<=>NC12H26                       1.880e+14   -0.500      0.00
NC12H26+H<=>PXC12H25+H2                  1.300e+06    2.540   6756.00
NC12H26+H<=>SXC12H25+H2                  2.600e+06    2.400   4471.00
NC12H26+H<=>S3XC12H25+H2                 3.900e+06    2.400   4471.00
NC12H26+O<=>PXC12H25+OH                  1.900e+05    2.680   3716.00
NC12H26+O<=>SXC12H25+OH                  9.520e+04    2.710   2106.00
NC12H26+O<=>S3XC12H25+OH                 1.428e+05    2.710   2106.00
NC12H26+OH<=>PXC12H25+H2O                3.400e+03    2.660    527.00
NC12H26+OH<=>SXC12H25+H2O                7.400e+04    2.390    393.00
NC12H26+OH<=>S3XC12H25+H2O               1.010e+05    2.390    393.00
NC12H26+O2<=>PXC12H25+HO2                4.000e+13    0.000  50930.00
NC12H26+O2<=>SXC12H25+HO2                8.000e+13    0.000  47590.00
NC12H26+O2<=>S3XC12H25+HO2               1.200e+14    0.000  47590.00
NC12H26+HO2<=>PXC12H25+H2O2              6.760e+04    2.550  16490.00
NC12H26+HO2<=>SXC12H25+H2O2              8.900e+04    2.600  13910.00
NC12H26+HO2<=>S3XC12H25+H2O2             8.850e+04    2.600  13910.00
NC12H26+CH3<=>PXC12H25+CH4               1.810e+00    3.650   7153.00
NC12H26+CH3<=>SXC12H25+CH4               6.000e+00    3.460   5480.00
NC12H26+CH3<=>S3XC12H25+CH4              9.000e+00    3.460   5480.00
PXC12H25+O2=>C12H25O2                    5.000e+13    0.000      0.00
C12H25O2=>PXC12H25+O2                    2.750e+13    0.000  27400.00
SXC12H25+O2=>C12H25O2                    5.000e+13    0.000      0.00
C12H25O2=>SXC12H25+O2                    2.750e+13    0.000  27400.00
S3XC12H25+O2=>C12H25O2                   5.000e+13    0.000      0.00
C12H25O2=>S3XC12H25+O2                   2.750e+13    0.000  27400.00
C12H25O2=>C12OOH                         1.510e+12    0.000  19000.00
C12OOH=>C12H25O2                         1.000e+11    0.000  11500.00
PXC12H25+O2=>C12H24+HO2                  3.500e+11    0.000   6000.00
C12H24+HO2=>PXC12H25+O2                  3.160e+11    0.000  19500.00
SXC12H25+O2=>C12H24+HO2                  3.500e+11    0.000   6000.00
C12H24+HO2=>SXC12H25+O2                  3.160e+11    0.000  19500.00
S3XC12H25+O2=>C12H24+HO2                 3.500e+11    0.000   6000.00
C12H24+HO2=>S3XC12H25+O2                 3.160e+11    0.000  19500.00
C12OOH+O2=>O2C12H24OOH                   4.600e+10    0.000      0.00
O2C12H24OOH=>C12OOH+O2                   2.510e+13    0.000  27400.00
O2C12H24OOH<=>OC12H23OOH+OH              8.900e+10    0.000  17000.00
OC12H23OOH=>3C2H4+C2H5+2CH2CHO+OH        1.800e+15    0.000  42065.00
END
